   101 'GENROU'  1     6.5000      0.60000E-01  0.20000      0.50000E-01
          4.0000       0.0000       1.8000       1.7500      0.60000    
         0.80000      0.30000      0.15000      0.90000E-01  0.38000    /
   101 'IEEET1'  1     0.0000       400.00      0.40000E-01   7.3000    
         -7.3000       1.0000      0.80000      0.30000E-01   1.0000    
          0.0000       2.4700      0.35000E-01   4.5000      0.47000    /
   101 'TGOV1'   1    0.50000E-01  0.50000E-01   1.0500      0.30000    
          1.0000       1.0000       0.0000    /
   102 'GENROU'  1     6.5000      0.60000E-01  0.20000      0.50000E-01
          4.0000       0.0000       1.8000       1.7500      0.60000    
         0.80000      0.30000      0.15000      0.90000E-01  0.38000    /
   102 'IEEET1'  1     0.0000       400.00      0.40000E-01   7.3000    
         -7.3000       1.0000      0.80000      0.30000E-01   1.0000    
          0.0000       2.4700      0.35000E-01   4.5000      0.47000    /
   102 'TGOV1'   1    0.50000E-01  0.50000E-01   1.0500      0.30000    
          1.0000       1.0000       0.0000    /
   206 'GENROU'  1     4.5000      0.70000E-01  0.15000      0.50000E-01
          2.5000       0.0000       1.4000       1.3500      0.50000    
         0.70000      0.25000      0.10000      0.90000E-01  0.38000    /
   206 'IEEET1'  1     0.0000       40.000      0.60000E-01   2.1000    
         -2.1000       0.0000      0.50000      0.80000E-01  0.80000    
          0.0000       2.4700      0.35000E-01   3.5000      0.60000    /
   206 'TGOV1'   1    0.50000E-01  0.50000E-01   0.9000      0.30000    
          3.0000       9.0000       0.0000    /
   211 'GENSAL'  1     5.0000      0.50000E-01  0.20000       5.0000    
          0.0000       1.0000      0.75000      0.40000      0.26000    
         0.10000      0.11000      0.62000    /
   211 'SCRX'    1    0.10000       10.000       200.00      0.50000E-01
         -5.0000       5.0000       1.0000       10.000    /
   211 'HYGOV'   1    0.50000E-01  0.30000       5.0000      0.50000E-01
         0.50000      0.20000       1.0000       0.0000       1.2500    
          1.2000      0.50000      0.80000E-01/          
  3011 'GENROU'  1     5.0000      0.60000E-01  0.20000      0.60000E-01
          3.0000       0.0000       1.6000       1.5500      0.70000    
         0.85000      0.35000      0.20000      0.90000E-01  0.38000    /
  3011 'SEXS'    1    0.10000       10.000       100.00      0.10000    
          0.0000       4.0000    /
  3018 'GENROU'  1     5.0000      0.60000E-01  0.20000      0.60000E-01
          3.0000       0.0000       1.6000       1.5500      0.70000    
         0.85000      0.35000      0.20000      0.90000E-01  0.38000    /
  3018 'SEXS'    1    0.10000       10.000       100.00      0.10000    
          0.0000       4.0000    /
