  30 'GENROU' 1   10.200000  0.050000  0.010000  0.035000  21.000000  0.000000  0.200000
  0.138000  0.062000  0.060000  0.050000  0.025000  0.000000  0.000000  /
  30 'IEEEST' 1   1  0  0  0  0  0  0  0  1  0.05  3  0.5  10  10  1  0.2  -0.2  0  0  /
  31 'GENROU' 1   6.560000  0.050000  1.500000  0.035000  30.299999  0.000000  0.295000
  0.282000  0.069700  0.170000  0.050000  0.035000  0.000000  0.000000  /
  31 'IEEEST' 1   1  0  0  0  0  0  0  0  5  0.4  1  0.1  10  10  0.5  0.2  -0.2  0  0  /
  32 'GENROU' 1   5.700000  0.050000  1.500000  0.035000  17.900000  0.000000  0.499000
  0.474000  0.106200  0.175200  0.090000  0.060800  0.000000  0.000000  /
  32 'IEEEST' 1   1  0  0  0  0  0  0  0  3  0.2  2  0.2  10  10  0.5  0.2  -0.2  0  0  /
  33 'GENROU' 1   5.690000  0.050000  1.500000  0.035000  14.300000  0.000000  0.524000
  0.516000  0.087200  0.332000  0.070000  0.059000  0.000000  0.000000  /
  33 'IEEEST' 1   1  0  0  0  0  0  0  0  1  0.1  1  0.3  10  10  2  0.2  -0.2  0  0  /
  34 'GENROU' 1   5.400000  0.050000  0.440000  0.035000  26.000000  0.000000  0.670000
  0.620000  0.132000  0.166000  0.089000  0.054000  0.000000  0.000000  /
  34 'IEEEST' 1   1  0  0  0  0  0  0  0  1.5  0.2  1  0.1  10  10  1  0.2  -0.2  0  0  /
  35 'GENROU' 1   7.300000  0.050000  0.400000  0.035000  17.400000  0.000000  0.508000
  0.482000  0.100000  0.162800  0.080000  0.044800  0.000000  0.000000  /
  35 'IEEEST' 1   1  0  0  0  0  0  0  0  0.5  0.1  0.5  0.1  10  10  4  0.2  -0.2  0  0  /
  36 'GENROU' 1   5.660000  0.050000  1.500000  0.035000  13.200000  0.000000  0.590000
  0.584000  0.098000  0.372000  0.088000  0.064400  0.000000  0.000000  /
  36 'IEEEST' 1   1  0  0  0  0  0  0  0  0.2  0.02  0.5  0.1  10  10  7.5  0.2  -0.2  0  0  /
  37 'GENROU' 1   6.700000  0.050000  0.410000  0.035000  12.150000  0.000000  0.580000
  0.560000  0.114000  0.182200  0.090000  0.056000  0.000000  0.000000  /
  37 'IEEEST' 1   1  0  0  0  0  0  0  0  1  0.2  1  0.1  10  10  2  0.2  -0.2  0  0  /
  38 'GENROU' 1   4.790000  0.050000  1.960000  0.035000  17.250000  0.000000  0.421200
  0.410000  0.114000  0.117400  0.090000  0.059600  0.000000  0.000000  /
  38 'IEEEST' 1   1  0  0  0  0  0  0  0  1  0.5  2  0.1  10  10  2  0.2  -0.2  0  0  /
  39 'GENROU' 1   7.000000  0.050000  0.700000  0.035000  25.000000  0.000000  0.400000
  0.380000  0.120000  0.160000  0.080000  0.060000  0.000000  0.000000  /
  39 'IEEEST' 1   1  0  0  0  0  0  0  0  5  0.6  3  0.5  10  10  1  0.2  -0.2  0  0  /
